Version 4
SHEET 1 1836 2192
WIRE 1520 -2320 1424 -2320
WIRE 1488 -2272 1488 -2336
WIRE 352 -2256 304 -2256
WIRE 480 -2256 432 -2256
WIRE 1312 -2256 1248 -2256
WIRE 1424 -2256 1424 -2320
WIRE 1424 -2256 1392 -2256
WIRE 1456 -2256 1424 -2256
WIRE 1424 -2240 1392 -2240
WIRE 1600 -2240 1600 -2320
WIRE 1600 -2240 1520 -2240
WIRE 1696 -2240 1600 -2240
WIRE 1424 -2224 1424 -2240
WIRE 1456 -2224 1424 -2224
WIRE 1488 -2176 1488 -2208
WIRE 304 -2096 304 -2256
WIRE 304 -2096 272 -2096
WIRE 352 -2096 304 -2096
WIRE 784 -2096 528 -2096
WIRE 976 -2096 928 -2096
WIRE 480 -2080 480 -2256
WIRE 480 -2080 416 -2080
WIRE 528 -2080 528 -2096
WIRE 528 -2080 480 -2080
WIRE 928 -2080 928 -2096
WIRE 928 -2080 848 -2080
WIRE 352 -2064 304 -2064
WIRE 784 -2064 752 -2064
WIRE 1392 -2064 1392 -2080
WIRE 1440 -1984 1344 -1984
WIRE 1504 -1984 1440 -1984
WIRE 1632 -1984 1584 -1984
WIRE 1488 -1920 1488 -2016
WIRE 1424 -1904 1344 -1904
WIRE 1440 -1904 1440 -1984
WIRE 1456 -1904 1440 -1904
WIRE 1632 -1888 1632 -1984
WIRE 1632 -1888 1520 -1888
WIRE 1696 -1888 1632 -1888
WIRE 1280 -1872 1216 -1872
WIRE 1408 -1872 1360 -1872
WIRE 1456 -1872 1408 -1872
WIRE 1424 -1824 1424 -1904
WIRE 1440 -1824 1424 -1824
WIRE 1488 -1824 1488 -1856
WIRE 1488 -1824 1440 -1824
WIRE 1440 -1776 1440 -1824
WIRE 1280 -1760 1104 -1760
WIRE 1408 -1760 1408 -1872
WIRE 1408 -1760 1360 -1760
WIRE -1936 -1088 -2000 -1088
WIRE -1840 -1088 -1856 -1088
WIRE -2000 -1072 -2000 -1088
WIRE -816 -960 -864 -960
WIRE -688 -960 -736 -960
WIRE -1952 -912 -2016 -912
WIRE -1856 -912 -1872 -912
WIRE -2016 -896 -2016 -912
WIRE -976 -864 -1104 -864
WIRE -864 -864 -864 -960
WIRE -864 -864 -896 -864
WIRE -864 -800 -864 -864
WIRE -832 -800 -864 -800
WIRE -688 -784 -688 -960
WIRE -688 -784 -768 -784
WIRE -656 -784 -688 -784
WIRE -976 -768 -1104 -768
WIRE -880 -768 -896 -768
WIRE -832 -768 -880 -768
WIRE -880 -752 -880 -768
WIRE -1856 -720 -1952 -720
WIRE -880 -640 -880 -672
WIRE -800 -640 -800 -752
WIRE -800 -640 -880 -640
WIRE -800 -624 -800 -640
WIRE -1872 -592 -1952 -592
WIRE -1856 -464 -2000 -464
WIRE -2000 -352 -2000 -384
FLAG -1840 -1088 5V
IOPIN -1840 -1088 Out
FLAG -2000 -992 0
FLAG 1248 -2256 speed_cmd_buf
IOPIN 1248 -2256 In
FLAG -656 -784 motor_control
IOPIN -656 -784 In
FLAG 1216 -1872 us_range_ana
IOPIN 1216 -1872 In
FLAG -1856 -912 Vbatt
IOPIN -1856 -912 Out
FLAG -2016 -816 0
FLAG -1856 -720 speed_cmd_buf
IOPIN -1856 -720 Out
FLAG -1872 -592 us_range_ana
IOPIN -1872 -592 Out
FLAG -2032 -720 0
FLAG -2032 -592 0
FLAG -1856 -464 motor_control
IOPIN -1856 -464 In
FLAG -2000 -352 0
FLAG 1488 -2176 0
FLAG 1392 -2064 0
FLAG 1104 -1680 0
FLAG 1440 -1776 0
FLAG 384 -2048 0
FLAG 192 -2096 speed_cmd_buf
IOPIN 192 -2096 In
FLAG 752 -2064 us_range_ana
IOPIN 752 -2064 In
FLAG 816 -2048 0
FLAG 304 -1984 0
FLAG 1488 -2016 Vbatt
IOPIN 1488 -2016 Out
FLAG 1696 -2240 speed_out
FLAG 1696 -1888 range_out
FLAG -800 -624 0
FLAG -1104 -864 speed_cmd_buf
IOPIN -1104 -864 Out
FLAG -1104 -768 us_range_ana
IOPIN -1104 -768 Out
FLAG -800 -816 Vbatt
IOPIN -800 -816 Out
SYMBOL voltage -2000 -1088 R0
WINDOW 123 0 0 Left 0
WINDOW 39 0 0 Left 0
SYMATTR InstName V2
SYMATTR Value 5
SYMBOL res -1952 -1104 M90
WINDOW 0 -7 47 VBottom 2
WINDOW 3 29 54 VTop 2
SYMATTR InstName RSense5V
SYMATTR Value 1µ
SYMBOL Opamps\\LTC6079 1488 -2240 R0
SYMATTR InstName U2
SYMBOL voltage -2016 -912 R0
WINDOW 123 0 0 Left 0
WINDOW 39 0 0 Left 0
SYMATTR InstName V1
SYMATTR Value 6.5
SYMBOL res -1968 -928 M90
WINDOW 0 -7 47 VBottom 2
WINDOW 3 29 54 VTop 2
SYMATTR InstName RSenseVbatt
SYMATTR Value 1µ
SYMBOL voltage -1936 -720 R90
WINDOW 123 0 0 Left 0
WINDOW 39 0 0 Left 0
WINDOW 0 -19 -17 VRight 2
WINDOW 3 50 -286 VRight 2
SYMATTR InstName V3
SYMATTR Value PWL(0 3 20m 3 40m 0.5 60m 0.5 80m 0.5 90m 3)
SYMBOL voltage -1936 -592 R90
WINDOW 123 0 0 Left 0
WINDOW 39 0 0 Left 0
WINDOW 0 -22 -13 VRight 2
WINDOW 3 53 -165 VRight 2
SYMATTR InstName V4
SYMATTR Value PWL(0 3 50m 3 70m 0.5)
SYMBOL res -2016 -480 R0
SYMATTR InstName R1
SYMATTR Value 100k
SYMBOL res 1616 -2336 R90
WINDOW 0 0 56 VBottom 2
WINDOW 3 32 56 VTop 2
SYMATTR InstName R3
SYMATTR Value 18k
SYMBOL res 1408 -2272 R90
WINDOW 0 0 56 VBottom 2
WINDOW 3 32 56 VTop 2
SYMATTR InstName R4
SYMATTR Value 10k
SYMBOL voltage 1392 -2176 R0
WINDOW 123 0 0 Left 0
WINDOW 39 0 0 Left 0
SYMATTR InstName V5
SYMATTR Value 2.636
SYMBOL Opamps\\LTC6079 1488 -1888 R0
SYMATTR InstName U1
SYMBOL res 1376 -1888 R90
WINDOW 0 0 56 VBottom 2
WINDOW 3 32 56 VTop 2
SYMATTR InstName R2
SYMATTR Value 10k
SYMBOL res 1376 -1776 R90
WINDOW 0 0 56 VBottom 2
WINDOW 3 32 56 VTop 2
SYMATTR InstName R5
SYMATTR Value 166.67k
SYMBOL voltage 1104 -1776 R0
WINDOW 123 0 0 Left 0
WINDOW 39 0 0 Left 0
SYMATTR InstName V6
SYMATTR Value 5
SYMBOL res 1600 -2000 R90
WINDOW 0 0 56 VBottom 2
WINDOW 3 32 56 VTop 2
SYMATTR InstName R6
SYMATTR Value 10k
SYMBOL res 1328 -2000 R0
SYMATTR InstName R7
SYMATTR Value 8.929k
SYMBOL Opamps\\LTC6079 384 -2080 R0
SYMATTR InstName U3
SYMBOL res 288 -2112 R90
WINDOW 0 0 56 VBottom 2
WINDOW 3 32 56 VTop 2
SYMATTR InstName R8
SYMATTR Value 10k
SYMBOL res 448 -2272 R90
WINDOW 0 0 56 VBottom 2
WINDOW 3 32 56 VTop 2
SYMATTR InstName R9
SYMATTR Value 9k
SYMBOL Opamps\\LTC6079 816 -2080 R0
SYMATTR InstName U4
SYMBOL voltage 304 -2080 R0
WINDOW 123 0 0 Left 0
WINDOW 39 0 0 Left 0
SYMATTR InstName V7
SYMATTR Value 1.784
SYMBOL res 1376 -2256 R0
SYMATTR InstName R10
SYMATTR Value 10k
SYMBOL Opamps\\LTC6079 -800 -784 R0
SYMATTR InstName U5
SYMBOL res -720 -976 R90
WINDOW 0 0 56 VBottom 2
WINDOW 3 32 56 VTop 2
SYMATTR InstName Rf
SYMATTR Value 47k
SYMBOL res -880 -880 R90
WINDOW 0 0 56 VBottom 2
WINDOW 3 32 56 VTop 2
SYMATTR InstName Rs
SYMATTR Value 23.5k
SYMBOL res -896 -768 R0
SYMATTR InstName Ra
SYMATTR Value 56k
SYMBOL res -880 -784 R90
WINDOW 0 0 56 VBottom 2
WINDOW 3 32 56 VTop 2
SYMATTR InstName Rb
SYMATTR Value 15.79k
TEXT -2288 -1384 Left 2 ;Don't change these -- used for auto-assessments.\nYou may modify the input files (.txt and .csv) \n               while developing.\nFor submission: \n  * Only one label name per net name
TEXT -1552 -1400 Left 2 ;=============================\nREPLACE WITH YOUR DETAILS\nE. Stewdent.,  00024601\n=============================
TEXT -960 -1400 Left 2 ;=============================\nIncludes (don't fiddle with this!!)\n=============================
TEXT -1152 -1208 Left 2 ;=======================================\nYour circuit goes here, these are just placeholders.\n=======================================
TEXT -1392 -1448 Left 2 ;PLEASE WAIT FOR YOUR SIMULATION TO FINISH BEFORE SUBMITTING.
TEXT -2272 -1176 Left 2 !.tran 0 {transtop} 0
TEXT -2272 -1208 Left 2 !.include A4cfg.txt
TEXT -2320 -704 Left 2 ;Speed command\n(input to your circuit)
TEXT -2320 -592 Left 2 ;Ultrasonic range\nsensor filtered output\n(Input to yuor circuit)
TEXT -2328 -440 Left 2 ;Motor command\n(Output from your circuit)
TEXT -2312 -880 Left 2 ;Battery voltage \n(supply to your circuit)
TEXT -2304 -1056 Left 2 ;5V voltage \n(supply to your circuit)
LINE Normal -1584 -1424 -1584 -288 2
LINE Normal -2368 -1424 -1584 -1424 2
LINE Normal -1584 -288 -2368 -288 2
LINE Normal -1584 -304 -1584 -304 2
LINE Normal -2368 -1424 -2368 -288 2
