Version 4
SHEET 1 2256 680
WIRE 688 32 688 0
WIRE 688 32 656 32
WIRE 768 32 688 32
WIRE 656 48 656 32
WIRE 16 64 16 48
WIRE 544 80 496 80
WIRE 768 80 768 32
WIRE -512 112 -512 96
WIRE 176 144 16 144
WIRE 336 160 240 160
WIRE 448 160 336 160
WIRE 544 160 544 80
WIRE 656 160 656 128
WIRE 656 160 624 160
WIRE 720 160 720 96
WIRE 720 160 656 160
WIRE 160 176 96 176
WIRE 176 176 160 176
WIRE 96 192 96 176
WIRE 496 192 496 176
WIRE 768 192 768 176
WIRE 816 192 768 192
WIRE 768 208 768 192
WIRE 160 256 160 176
WIRE 240 256 160 256
WIRE 336 256 336 160
WIRE 336 256 320 256
WIRE 96 272 80 272
WIRE 768 304 768 288
FLAG 208 192 0
FLAG -512 192 0
FLAG -512 96 5V
IOPIN -512 96 Out
FLAG 16 224 0
FLAG 16 48 5V
IOPIN 16 48 Out
FLAG 80 272 Input
IOPIN 80 272 In
FLAG -352 384 Input
IOPIN -352 384 In
FLAG -352 464 0
FLAG 816 192 Output
IOPIN 816 192 Out
FLAG -352 176 0
FLAG -352 96 Vbat
IOPIN -352 96 In
FLAG 768 304 0
FLAG 208 128 5V
IOPIN 208 128 Out
FLAG 496 192 0
FLAG 688 0 Vbat
IOPIN 688 0 In
SYMBOL voltage -512 96 R0
WINDOW 123 0 0 Left 0
WINDOW 39 0 0 Left 0
SYMATTR InstName V1
SYMATTR Value 5
SYMBOL OpAmps\\LTC6079 208 160 R0
SYMATTR InstName U1
SYMBOL res 0 128 R0
SYMATTR InstName R1
SYMATTR Value 47k
SYMBOL res 0 48 R0
SYMATTR InstName R2
SYMATTR Value 95.43k
SYMBOL res 336 240 R90
WINDOW 0 0 56 VBottom 2
WINDOW 3 32 56 VTop 2
SYMATTR InstName Rf
SYMATTR Value 34.483k
SYMBOL res 80 176 R0
SYMATTR InstName Rg
SYMATTR Value 1k
SYMBOL voltage -352 368 R0
WINDOW 123 0 0 Left 0
WINDOW 39 0 0 Left 0
SYMATTR InstName Vi
SYMATTR Value SINE(1.54 1 5)
SYMBOL voltage -352 80 R0
WINDOW 123 0 0 Left 0
WINDOW 39 0 0 Left 0
SYMATTR InstName V2
SYMATTR Value 7.2
SYMBOL pmos 720 176 M180
SYMATTR InstName M1
SYMATTR Value IRF9Z24S_L
SYMBOL res 752 192 R0
SYMATTR InstName RL
SYMATTR Value 100k
SYMBOL nmos 448 80 R0
WINDOW 0 -17 -7 Left 2
WINDOW 3 -22 -39 Left 2
SYMATTR InstName M2
SYMATTR Value 2N7002
SYMBOL res 640 32 R0
SYMATTR InstName R4
SYMATTR Value 47k
SYMBOL res 640 144 R90
WINDOW 0 0 56 VBottom 2
WINDOW 3 32 56 VTop 2
SYMATTR InstName R5
SYMATTR Value 330
TEXT -584 352 Left 2 !.tran 0.4
TEXT 520 -176 Left 2 !.inc irf9z24n.lib
