Version 4
SHEET 1 880 680
WIRE -112 0 -240 0
WIRE -240 80 -240 0
WIRE -208 80 -240 80
WIRE -112 96 -112 0
WIRE -112 96 -144 96
WIRE -64 96 -112 96
WIRE 48 96 16 96
WIRE 80 96 48 96
WIRE 192 96 160 96
WIRE -208 112 -304 112
WIRE -688 160 -688 112
WIRE -560 160 -560 112
WIRE 48 208 48 96
WIRE 80 208 48 208
WIRE 192 224 192 96
WIRE 192 224 144 224
WIRE -64 240 -128 240
WIRE 48 240 16 240
WIRE 80 240 48 240
WIRE -688 256 -688 240
WIRE -560 256 -560 240
WIRE 48 256 48 240
WIRE -128 336 -128 320
WIRE 48 368 48 336
WIRE 112 368 112 256
WIRE 112 368 48 368
WIRE 112 384 112 368
FLAG -688 256 0
FLAG -688 112 5V
IOPIN -688 112 Out
FLAG 112 384 0
FLAG 112 192 5V
IOPIN 112 192 Out
FLAG -560 256 0
FLAG -560 112 3.3V
IOPIN -560 112 Out
FLAG -128 336 0
FLAG -304 192 0
FLAG -176 128 0
FLAG -176 64 5V
IOPIN -176 64 Out
FLAG -304 32 5V
IOPIN -304 32 Out
SYMBOL OpAmps\\LTC6079 112 224 R0
SYMATTR InstName U1
SYMBOL voltage -688 144 R0
WINDOW 123 0 0 Left 0
WINDOW 39 0 0 Left 0
SYMATTR InstName V1
SYMATTR Value 5
SYMBOL res 176 80 R90
WINDOW 0 0 56 VBottom 2
WINDOW 3 32 56 VTop 2
SYMATTR InstName Rf
SYMATTR Value 33k
SYMBOL voltage -560 144 R0
WINDOW 123 0 0 Left 0
WINDOW 39 0 0 Left 0
SYMATTR InstName V2
SYMATTR Value 3.3
SYMBOL voltage -128 224 R0
WINDOW 0 24 38 Left 2
WINDOW 123 0 0 Left 0
WINDOW 39 0 0 Left 0
SYMATTR InstName Vi
SYMATTR Value PULSE(5 7.2 0 5m 0 10m 20m)
SYMBOL res 32 80 R90
WINDOW 0 0 56 VBottom 2
WINDOW 3 32 56 VTop 2
SYMATTR InstName Rg
SYMATTR Value 17.286k
SYMBOL res -320 16 R0
SYMATTR InstName R1
SYMATTR Value 32.98k
SYMBOL res -320 96 R0
SYMATTR InstName R2
SYMATTR Value 100k
SYMBOL res 32 224 R90
WINDOW 0 0 56 VBottom 2
WINDOW 3 32 56 VTop 2
SYMATTR InstName R3
SYMATTR Value 47k
SYMBOL res 32 240 R0
SYMATTR InstName R4
SYMATTR Value 47k
SYMBOL OpAmps\\LTC6079 -176 96 R0
WINDOW 3 -26 64 Left 2
SYMATTR InstName U2
TEXT -760 408 Left 2 !.tran 10m
